
Version,
  9.5;                                    !- Version Identifier

Timestep,
  4;                                      !- Number of Timesteps per Hour

LifeCycleCost:Parameters,
  Life Cycle Cost Parameters,             !- Name
  EndOfYear,                              !- Discounting Convention
  ConstantDollar,                         !- Inflation Approach
  0.03,                                   !- Real Discount Rate
  ,                                       !- Nominal Discount Rate
  ,                                       !- Inflation
  ,                                       !- Base Date Month
  2011,                                   !- Base Date Year
  ,                                       !- Service Date Month
  2011,                                   !- Service Date Year
  25,                                     !- Length of Study Period in Years
  ,                                       !- Tax rate
  None;                                   !- Depreciation Method

LifeCycleCost:UsePriceEscalation,
  U.S. Avg  Commercial-Electricity,       !- Name
  Electricity,                            !- Resource
  2011,                                   !- Escalation Start Year
  January,                                !- Escalation Start Month
  0.9838,                                 !- Year Escalation 1
  0.9730,                                 !- Year Escalation 2
  0.9632,                                 !- Year Escalation 3
  0.9611,                                 !- Year Escalation 4
  0.9571,                                 !- Year Escalation 5
  0.9553,                                 !- Year Escalation 6
  0.9539,                                 !- Year Escalation 7
  0.9521,                                 !- Year Escalation 8
  0.9546,                                 !- Year Escalation 9
  0.9550,                                 !- Year Escalation 10
  0.9553,                                 !- Year Escalation 11
  0.9564,                                 !- Year Escalation 12
  0.9575,                                 !- Year Escalation 13
  0.9596,                                 !- Year Escalation 14
  0.9618,                                 !- Year Escalation 15
  0.9614,                                 !- Year Escalation 16
  0.9618,                                 !- Year Escalation 17
  0.9618,                                 !- Year Escalation 18
  0.9593,                                 !- Year Escalation 19
  0.9589,                                 !- Year Escalation 20
  0.9607,                                 !- Year Escalation 21
  0.9625,                                 !- Year Escalation 22
  0.9650,                                 !- Year Escalation 23
  0.9708,                                 !- Year Escalation 24
  0.9751,                                 !- Year Escalation 25
  0.9762,                                 !- Year Escalation 26
  0.9766,                                 !- Year Escalation 27
  0.9766,                                 !- Year Escalation 28
  0.9769,                                 !- Year Escalation 29
  0.9773;                                 !- Year Escalation 30

LifeCycleCost:UsePriceEscalation,
  U.S. Avg  Commercial-Distillate Oil,    !- Name
  FuelOilNo1,                             !- Resource
  2011,                                   !- Escalation Start Year
  January,                                !- Escalation Start Month
  0.9714,                                 !- Year Escalation 1
  0.9730,                                 !- Year Escalation 2
  0.9942,                                 !- Year Escalation 3
  1.0164,                                 !- Year Escalation 4
  1.0541,                                 !- Year Escalation 5
  1.0928,                                 !- Year Escalation 6
  1.1267,                                 !- Year Escalation 7
  1.1580,                                 !- Year Escalation 8
  1.1792,                                 !- Year Escalation 9
  1.1967,                                 !- Year Escalation 10
  1.2200,                                 !- Year Escalation 11
  1.2333,                                 !- Year Escalation 12
  1.2566,                                 !- Year Escalation 13
  1.2709,                                 !- Year Escalation 14
  1.2826,                                 !- Year Escalation 15
  1.2985,                                 !- Year Escalation 16
  1.3102,                                 !- Year Escalation 17
  1.3250,                                 !- Year Escalation 18
  1.3261,                                 !- Year Escalation 19
  1.3282,                                 !- Year Escalation 20
  1.3324,                                 !- Year Escalation 21
  1.3356,                                 !- Year Escalation 22
  1.3431,                                 !- Year Escalation 23
  1.3510,                                 !- Year Escalation 24
  1.3568,                                 !- Year Escalation 25
  1.3606,                                 !- Year Escalation 26
  1.3637,                                 !- Year Escalation 27
  1.3674,                                 !- Year Escalation 28
  1.3706,                                 !- Year Escalation 29
  1.3743;                                 !- Year Escalation 30

LifeCycleCost:UsePriceEscalation,
  U.S. Avg  Commercial-Residual Oil,      !- Name
  FuelOilNo2,                             !- Resource
  2011,                                   !- Escalation Start Year
  January,                                !- Escalation Start Month
  0.8469,                                 !- Year Escalation 1
  0.8257,                                 !- Year Escalation 2
  0.8681,                                 !- Year Escalation 3
  0.8988,                                 !- Year Escalation 4
  0.9289,                                 !- Year Escalation 5
  0.9604,                                 !- Year Escalation 6
  0.9897,                                 !- Year Escalation 7
  1.0075,                                 !- Year Escalation 8
  1.0314,                                 !- Year Escalation 9
  1.0554,                                 !- Year Escalation 10
  1.0861,                                 !- Year Escalation 11
  1.1278,                                 !- Year Escalation 12
  1.1497,                                 !- Year Escalation 13
  1.1620,                                 !- Year Escalation 14
  1.1743,                                 !- Year Escalation 15
  1.1852,                                 !- Year Escalation 16
  1.1948,                                 !- Year Escalation 17
  1.2037,                                 !- Year Escalation 18
  1.2071,                                 !- Year Escalation 19
  1.2119,                                 !- Year Escalation 20
  1.2139,                                 !- Year Escalation 21
  1.2194,                                 !- Year Escalation 22
  1.2276,                                 !- Year Escalation 23
  1.2365,                                 !- Year Escalation 24
  1.2420,                                 !- Year Escalation 25
  1.2461,                                 !- Year Escalation 26
  1.2509,                                 !- Year Escalation 27
  1.2550,                                 !- Year Escalation 28
  1.2591,                                 !- Year Escalation 29
  1.2638;                                 !- Year Escalation 30

LifeCycleCost:UsePriceEscalation,
  U.S. Avg  Commercial-Natural gas,       !- Name
  NaturalGas,                             !- Resource
  2011,                                   !- Escalation Start Year
  January,                                !- Escalation Start Month
  0.9823,                                 !- Year Escalation 1
  0.9557,                                 !- Year Escalation 2
  0.9279,                                 !- Year Escalation 3
  0.9257,                                 !- Year Escalation 4
  0.9346,                                 !- Year Escalation 5
  0.9412,                                 !- Year Escalation 6
  0.9512,                                 !- Year Escalation 7
  0.9645,                                 !- Year Escalation 8
  0.9856,                                 !- Year Escalation 9
  1.0067,                                 !- Year Escalation 10
  1.0222,                                 !- Year Escalation 11
  1.0410,                                 !- Year Escalation 12
  1.0610,                                 !- Year Escalation 13
  1.0787,                                 !- Year Escalation 14
  1.0942,                                 !- Year Escalation 15
  1.1098,                                 !- Year Escalation 16
  1.1220,                                 !- Year Escalation 17
  1.1308,                                 !- Year Escalation 18
  1.1386,                                 !- Year Escalation 19
  1.1486,                                 !- Year Escalation 20
  1.1619,                                 !- Year Escalation 21
  1.1763,                                 !- Year Escalation 22
  1.1918,                                 !- Year Escalation 23
  1.2118,                                 !- Year Escalation 24
  1.2284,                                 !- Year Escalation 25
  1.2439,                                 !- Year Escalation 26
  1.2605,                                 !- Year Escalation 27
  1.2772,                                 !- Year Escalation 28
  1.2938,                                 !- Year Escalation 29
  1.3115;                                 !- Year Escalation 30

LifeCycleCost:UsePriceEscalation,
  U.S. Avg  Commercial-Coal,              !- Name
  Coal,                                   !- Resource
  2011,                                   !- Escalation Start Year
  January,                                !- Escalation Start Month
  0.9970,                                 !- Year Escalation 1
  1.0089,                                 !- Year Escalation 2
  1.0089,                                 !- Year Escalation 3
  0.9941,                                 !- Year Escalation 4
  0.9941,                                 !- Year Escalation 5
  1.0000,                                 !- Year Escalation 6
  1.0030,                                 !- Year Escalation 7
  1.0059,                                 !- Year Escalation 8
  1.0089,                                 !- Year Escalation 9
  1.0119,                                 !- Year Escalation 10
  1.0148,                                 !- Year Escalation 11
  1.0178,                                 !- Year Escalation 12
  1.0208,                                 !- Year Escalation 13
  1.0267,                                 !- Year Escalation 14
  1.0297,                                 !- Year Escalation 15
  1.0356,                                 !- Year Escalation 16
  1.0415,                                 !- Year Escalation 17
  1.0534,                                 !- Year Escalation 18
  1.0564,                                 !- Year Escalation 19
  1.0593,                                 !- Year Escalation 20
  1.0653,                                 !- Year Escalation 21
  1.0712,                                 !- Year Escalation 22
  1.0742,                                 !- Year Escalation 23
  1.0801,                                 !- Year Escalation 24
  1.0831,                                 !- Year Escalation 25
  1.0831,                                 !- Year Escalation 26
  1.0861,                                 !- Year Escalation 27
  1.0890,                                 !- Year Escalation 28
  1.0920,                                 !- Year Escalation 29
  1.0950;                                 !- Year Escalation 30

Building,
  Building 1,                             !- Name
  0,                                      !- North Axis {deg}
  Suburbs,                                !- Terrain
  ,                                       !- Loads Convergence Tolerance Value {W}
  ,                                       !- Temperature Convergence Tolerance Value {deltaC}
  ,                                       !- Solar Distribution
  ,                                       !- Maximum Number of Warmup Days
  ;                                       !- Minimum Number of Warmup Days

Shading:Building:Detailed,
  Surface 25 - res eaves,                 !- Name
  ,                                       !- Transmittance Schedule Name
  ,                                       !- Number of Vertices
  -0.6096, 7.8578694992133, 5.1816,       !- X,Y,Z Vertex 1 {m}
  -0.6096, 3.92893474960665, 7.14606737480332, !- X,Y,Z Vertex 2 {m}
  0, 3.92893474960665, 7.14606737480332,  !- X,Y,Z Vertex 3 {m}
  0, 7.8578694992133, 5.1816;             !- X,Y,Z Vertex 4 {m}

Shading:Building:Detailed,
  Surface 25 - res eaves 1,               !- Name
  ,                                       !- Transmittance Schedule Name
  ,                                       !- Number of Vertices
  14.7537650985839, 3.92893474960665, 7.14606737480332, !- X,Y,Z Vertex 1 {m}
  14.7537650985839, 7.8578694992133, 5.1816, !- X,Y,Z Vertex 2 {m}
  14.1441650985839, 7.8578694992133, 5.1816, !- X,Y,Z Vertex 3 {m}
  14.1441650985839, 3.92893474960665, 7.14606737480332; !- X,Y,Z Vertex 4 {m}

Shading:Building:Detailed,
  Surface 25 - res eaves 2,               !- Name
  ,                                       !- Transmittance Schedule Name
  ,                                       !- Number of Vertices
  14.1441650985839, 8.4674694992133, 4.8768, !- X,Y,Z Vertex 1 {m}
  0, 8.4674694992133, 4.8768,             !- X,Y,Z Vertex 2 {m}
  0, 7.8578694992133, 5.1816,             !- X,Y,Z Vertex 3 {m}
  14.1441650985839, 7.8578694992133, 5.1816; !- X,Y,Z Vertex 4 {m}

Shading:Building:Detailed,
  Surface 39 - res eaves,                 !- Name
  ,                                       !- Transmittance Schedule Name
  ,                                       !- Number of Vertices
  6.21936509858394, 0, 4.8768,            !- X,Y,Z Vertex 1 {m}
  6.21936509858394, -3.6576, 4.8768,      !- X,Y,Z Vertex 2 {m}
  6.82896509858394, -3.6576, 5.1816,      !- X,Y,Z Vertex 3 {m}
  6.82896509858394, 0, 5.1816;            !- X,Y,Z Vertex 4 {m}

Shading:Building:Detailed,
  Surface 39 - res eaves 1,               !- Name
  ,                                       !- Transmittance Schedule Name
  ,                                       !- Number of Vertices
  6.82896509858394, -4.2672, 5.1816,      !- X,Y,Z Vertex 1 {m}
  10.4865650985839, -4.2672, 7.01039999999999, !- X,Y,Z Vertex 2 {m}
  10.4865650985839, -3.6576, 7.01039999999999, !- X,Y,Z Vertex 3 {m}
  6.82896509858394, -3.6576, 5.1816;      !- X,Y,Z Vertex 4 {m}

Shading:Building:Detailed,
  Surface 40 - res eaves,                 !- Name
  ,                                       !- Transmittance Schedule Name
  ,                                       !- Number of Vertices
  14.7537650985839, -3.6576, 4.8768,      !- X,Y,Z Vertex 1 {m}
  14.7537650985839, 0, 4.8768,            !- X,Y,Z Vertex 2 {m}
  14.1441650985839, 0, 5.1816,            !- X,Y,Z Vertex 3 {m}
  14.1441650985839, -3.6576, 5.1816;      !- X,Y,Z Vertex 4 {m}

Shading:Building:Detailed,
  Surface 40 - res eaves 1,               !- Name
  ,                                       !- Transmittance Schedule Name
  ,                                       !- Number of Vertices
  10.4865650985839, -4.2672, 7.01039999999999, !- X,Y,Z Vertex 1 {m}
  14.1441650985839, -4.2672, 5.1816,      !- X,Y,Z Vertex 2 {m}
  14.1441650985839, -3.6576, 5.1816,      !- X,Y,Z Vertex 3 {m}
  10.4865650985839, -3.6576, 7.01039999999999; !- X,Y,Z Vertex 4 {m}

Shading:Building:Detailed,
  Surface 43 - res eaves,                 !- Name
  ,                                       !- Transmittance Schedule Name
  ,                                       !- Number of Vertices
  -0.6096, 3.92893474960665, 7.14606737480332, !- X,Y,Z Vertex 1 {m}
  -0.6096, 2.56554228528067e-16, 5.1816,  !- X,Y,Z Vertex 2 {m}
  0, 2.56554228528067e-16, 5.1816,        !- X,Y,Z Vertex 3 {m}
  0, 3.92893474960665, 7.14606737480332;  !- X,Y,Z Vertex 4 {m}

Shading:Building:Detailed,
  Surface 43 - res eaves 1,               !- Name
  ,                                       !- Transmittance Schedule Name
  ,                                       !- Number of Vertices
  0, -0.6096, 4.8768,                     !- X,Y,Z Vertex 1 {m}
  6.82896509858394, -0.6096, 4.8768,      !- X,Y,Z Vertex 2 {m}
  6.82896509858394, 2.56554228528067e-16, 5.1816, !- X,Y,Z Vertex 3 {m}
  0, 2.56554228528067e-16, 5.1816;        !- X,Y,Z Vertex 4 {m}

Shading:Building:Detailed,
  Surface 43 - res eaves 2,               !- Name
  ,                                       !- Transmittance Schedule Name
  ,                                       !- Number of Vertices
  14.7537650985839, 2.56554228528067e-16, 5.1816, !- X,Y,Z Vertex 1 {m}
  14.7537650985839, 3.92893474960665, 7.14606737480332, !- X,Y,Z Vertex 2 {m}
  14.1441650985839, 3.92893474960665, 7.14606737480332, !- X,Y,Z Vertex 3 {m}
  14.1441650985839, 2.56554228528067e-16, 5.1816; !- X,Y,Z Vertex 4 {m}

Shading:Building:Detailed,
  res neighbors left,                     !- Name
  ,                                       !- Transmittance Schedule Name
  ,                                       !- Number of Vertices
  -4.572, -3.6576, 0,                     !- X,Y,Z Vertex 1 {m}
  -4.572, -3.6576, 6.84126737480332,      !- X,Y,Z Vertex 2 {m}
  -4.572, 7.8578694992133, 6.84126737480332, !- X,Y,Z Vertex 3 {m}
  -4.572, 7.8578694992133, 0;             !- X,Y,Z Vertex 4 {m}

Shading:Building:Detailed,
  res neighbors right,                    !- Name
  ,                                       !- Transmittance Schedule Name
  ,                                       !- Number of Vertices
  18.7161650985839, 7.8578694992133, 0,   !- X,Y,Z Vertex 1 {m}
  18.7161650985839, 7.8578694992133, 6.84126737480332, !- X,Y,Z Vertex 2 {m}
  18.7161650985839, -3.6576, 6.84126737480332, !- X,Y,Z Vertex 3 {m}
  18.7161650985839, -3.6576, 0;           !- X,Y,Z Vertex 4 {m}

Shading:Building:Detailed,
  Surface 10 - Window 1 shading surface,  !- Name
  window shading schedule,                !- Transmittance Schedule Name
  ,                                       !- Number of Vertices
  14.144164752, 5.41824868819433, 2.1336, !- X,Y,Z Vertex 1 {m}
  14.144164752, 5.41824868819433, 1.22853086838209, !- X,Y,Z Vertex 2 {m}
  14.144164752, 6.09722027980567, 1.22853086838209, !- X,Y,Z Vertex 3 {m}
  14.144164752, 6.09722027980567, 2.1336; !- X,Y,Z Vertex 4 {m}

Shading:Building:Detailed,
  Surface 13 - Window 1 shading surface,  !- Name
  window shading schedule,                !- Transmittance Schedule Name
  ,                                       !- Number of Vertices
  3.53021310057437, 0, 2.1336,            !- X,Y,Z Vertex 1 {m}
  3.53021310057437, 0, 1.04427659248327,  !- X,Y,Z Vertex 2 {m}
  4.34740995542563, 0, 1.04427659248327,  !- X,Y,Z Vertex 3 {m}
  4.34740995542563, 0, 2.1336;            !- X,Y,Z Vertex 4 {m}

Shading:Building:Detailed,
  Surface 16 - Window 1 shading surface,  !- Name
  window shading schedule,                !- Transmittance Schedule Name
  ,                                       !- Number of Vertices
  0, 4.61608940943439, 4.572,             !- X,Y,Z Vertex 1 {m}
  0, 4.61608940943439, 3.69665232439596,  !- X,Y,Z Vertex 2 {m}
  0, 3.959414484, 3.69665232439596,       !- X,Y,Z Vertex 3 {m}
  0, 3.959414484, 4.572;                  !- X,Y,Z Vertex 4 {m}

Shading:Building:Detailed,
  Surface 16 - Window 2 shading surface,  !- Name
  window shading schedule,                !- Transmittance Schedule Name
  ,                                       !- Number of Vertices
  0, 3.898454484, 4.572,                  !- X,Y,Z Vertex 1 {m}
  0, 3.898454484, 3.69665232439596,       !- X,Y,Z Vertex 2 {m}
  0, 3.24177955856561, 3.69665232439596,  !- X,Y,Z Vertex 3 {m}
  0, 3.24177955856561, 4.572;             !- X,Y,Z Vertex 4 {m}

Shading:Building:Detailed,
  Surface 17 - Window 1 shading surface,  !- Name
  window shading schedule,                !- Transmittance Schedule Name
  ,                                       !- Number of Vertices
  7.98358423943454, 7.857868968, 4.572,   !- X,Y,Z Vertex 1 {m}
  7.98358423943454, 7.857868968, 3.39759785604176, !- X,Y,Z Vertex 2 {m}
  7.102562376, 7.857868968, 3.39759785604176, !- X,Y,Z Vertex 3 {m}
  7.102562376, 7.857868968, 4.572;        !- X,Y,Z Vertex 4 {m}

Shading:Building:Detailed,
  Surface 17 - Window 2 shading surface,  !- Name
  window shading schedule,                !- Transmittance Schedule Name
  ,                                       !- Number of Vertices
  7.041602376, 7.857868968, 4.572,        !- X,Y,Z Vertex 1 {m}
  7.041602376, 7.857868968, 3.39759785604176, !- X,Y,Z Vertex 2 {m}
  6.16058051256546, 7.857868968, 3.39759785604176, !- X,Y,Z Vertex 3 {m}
  6.16058051256546, 7.857868968, 4.572;   !- X,Y,Z Vertex 4 {m}

Shading:Building:Detailed,
  Surface 18 - Window 1 shading surface,  !- Name
  window shading schedule,                !- Transmittance Schedule Name
  ,                                       !- Number of Vertices
  14.144164752, 1.27470624399886, 4.572,  !- X,Y,Z Vertex 1 {m}
  14.144164752, 1.27470624399886, 3.51233399607848, !- X,Y,Z Vertex 2 {m}
  14.144164752, 2.069654484, 3.51233399607848, !- X,Y,Z Vertex 3 {m}
  14.144164752, 2.069654484, 4.572;       !- X,Y,Z Vertex 4 {m}

Shading:Building:Detailed,
  Surface 18 - Window 2 shading surface,  !- Name
  window shading schedule,                !- Transmittance Schedule Name
  ,                                       !- Number of Vertices
  14.144164752, 2.130614484, 4.572,       !- X,Y,Z Vertex 1 {m}
  14.144164752, 2.130614484, 3.51233399607848, !- X,Y,Z Vertex 2 {m}
  14.144164752, 2.92556272400114, 3.51233399607848, !- X,Y,Z Vertex 3 {m}
  14.144164752, 2.92556272400114, 4.572;  !- X,Y,Z Vertex 4 {m}

Shading:Building:Detailed,
  Surface 19 - Window 1 shading surface,  !- Name
  window shading schedule,                !- Transmittance Schedule Name
  ,                                       !- Number of Vertices
  9.80603090674542, -3.6576, 4.572,       !- X,Y,Z Vertex 1 {m}
  9.80603090674542, -3.6576, 3.70547822427564, !- X,Y,Z Vertex 2 {m}
  10.456084752, -3.6576, 3.70547822427564, !- X,Y,Z Vertex 3 {m}
  10.456084752, -3.6576, 4.572;           !- X,Y,Z Vertex 4 {m}

Shading:Building:Detailed,
  Surface 19 - Window 2 shading surface,  !- Name
  window shading schedule,                !- Transmittance Schedule Name
  ,                                       !- Number of Vertices
  10.517044752, -3.6576, 4.572,           !- X,Y,Z Vertex 1 {m}
  10.517044752, -3.6576, 3.70547822427564, !- X,Y,Z Vertex 2 {m}
  11.1670985972546, -3.6576, 3.70547822427564, !- X,Y,Z Vertex 3 {m}
  11.1670985972546, -3.6576, 4.572;       !- X,Y,Z Vertex 4 {m}

Shading:Building:Detailed,
  Surface 20 - Window 1 shading surface,  !- Name
  window shading schedule,                !- Transmittance Schedule Name
  ,                                       !- Number of Vertices
  6.828964752, -1.51200294620479, 4.572,  !- X,Y,Z Vertex 1 {m}
  6.828964752, -1.51200294620479, 3.72741905458198, !- X,Y,Z Vertex 2 {m}
  6.828964752, -2.14559705379521, 3.72741905458198, !- X,Y,Z Vertex 3 {m}
  6.828964752, -2.14559705379521, 4.572;  !- X,Y,Z Vertex 4 {m}

Shading:Building:Detailed,
  Surface 21 - Window 1 shading surface,  !- Name
  window shading schedule,                !- Transmittance Schedule Name
  ,                                       !- Number of Vertices
  2.97036406638099, 0, 4.572,             !- X,Y,Z Vertex 1 {m}
  2.97036406638099, 0, 3.38798058655571,  !- X,Y,Z Vertex 2 {m}
  3.85860068561901, 0, 3.38798058655571,  !- X,Y,Z Vertex 3 {m}
  3.85860068561901, 0, 4.572;             !- X,Y,Z Vertex 4 {m}

Shading:Building:Detailed,
  Surface 8 - Window 1 shading surface,   !- Name
  window shading schedule,                !- Transmittance Schedule Name
  ,                                       !- Number of Vertices
  0, 4.61608940943439, 2.1336,            !- X,Y,Z Vertex 1 {m}
  0, 4.61608940943439, 1.25825232439596,  !- X,Y,Z Vertex 2 {m}
  0, 3.959414484, 1.25825232439596,       !- X,Y,Z Vertex 3 {m}
  0, 3.959414484, 2.1336;                 !- X,Y,Z Vertex 4 {m}

Shading:Building:Detailed,
  Surface 8 - Window 2 shading surface,   !- Name
  window shading schedule,                !- Transmittance Schedule Name
  ,                                       !- Number of Vertices
  0, 3.898454484, 2.1336,                 !- X,Y,Z Vertex 1 {m}
  0, 3.898454484, 1.25825232439596,       !- X,Y,Z Vertex 2 {m}
  0, 3.24177955856561, 1.25825232439596,  !- X,Y,Z Vertex 3 {m}
  0, 3.24177955856561, 2.1336;            !- X,Y,Z Vertex 4 {m}

Shading:Building:Detailed,
  Surface 9 - Window 1 shading surface,   !- Name
  window shading schedule,                !- Transmittance Schedule Name
  ,                                       !- Number of Vertices
  7.98358423943454, 7.857868968, 2.1336,  !- X,Y,Z Vertex 1 {m}
  7.98358423943454, 7.857868968, 0.959197856041758, !- X,Y,Z Vertex 2 {m}
  7.102562376, 7.857868968, 0.959197856041758, !- X,Y,Z Vertex 3 {m}
  7.102562376, 7.857868968, 2.1336;       !- X,Y,Z Vertex 4 {m}

Shading:Building:Detailed,
  Surface 9 - Window 2 shading surface,   !- Name
  window shading schedule,                !- Transmittance Schedule Name
  ,                                       !- Number of Vertices
  7.041602376, 7.857868968, 2.1336,       !- X,Y,Z Vertex 1 {m}
  7.041602376, 7.857868968, 0.959197856041758, !- X,Y,Z Vertex 2 {m}
  6.16058051256546, 7.857868968, 0.959197856041758, !- X,Y,Z Vertex 3 {m}
  6.16058051256546, 7.857868968, 2.1336;  !- X,Y,Z Vertex 4 {m}

Zone,
  finished basement zone,                 !- Name
  -0,                                     !- Direction of Relative North {deg}
  0,                                      !- X Origin {m}
  0,                                      !- Y Origin {m}
  -2.4384,                                !- Z Origin {m}
  ,                                       !- Type
  1,                                      !- Multiplier
  ,                                       !- Ceiling Height {m}
  ,                                       !- Volume {m3}
  ,                                       !- Floor Area {m2}
  ,                                       !- Zone Inside Convection Algorithm
  ,                                       !- Zone Outside Convection Algorithm
  Yes;                                    !- Part of Total Floor Area

BuildingSurface:Detailed,
  Surface 28,                             !- Name
  Floor,                                  !- Surface Type
  FloorFndGrndFinB,                       !- Construction Name
  finished basement zone,                 !- Zone Name
  Foundation,                             !- Outside Boundary Condition
  Foundation Kiva 1,                      !- Outside Boundary Condition Object
  NoSun,                                  !- Sun Exposure
  NoWind,                                 !- Wind Exposure
  ,                                       !- View Factor to Ground
  ,                                       !- Number of Vertices
  0, 0, 0,                                !- X,Y,Z Vertex 1 {m}
  0, 7.8578694992133, 0,                  !- X,Y,Z Vertex 2 {m}
  14.1441650985839, 7.8578694992133, 0,   !- X,Y,Z Vertex 3 {m}
  14.1441650985839, 3.6576, 0,            !- X,Y,Z Vertex 4 {m}
  6.82896509858394, 3.6576, 0,            !- X,Y,Z Vertex 5 {m}
  6.82896509858394, 0, 0;                 !- X,Y,Z Vertex 6 {m}

SurfaceProperty:ExposedFoundationPerimeter,
  Surface 28,                             !- Surface Name
  TotalExposedPerimeter,                  !- Exposed Perimeter Calculation Method
  33.0312691955949,                       !- Total Exposed Perimeter {m}
  ;                                       !- Exposed Perimeter Fraction {dimensionless}

BuildingSurface:Detailed,
  Surface 29,                             !- Name
  Wall,                                   !- Surface Type
  WallFndGrndFinB,                        !- Construction Name
  finished basement zone,                 !- Zone Name
  Foundation,                             !- Outside Boundary Condition
  Foundation Kiva 1,                      !- Outside Boundary Condition Object
  NoSun,                                  !- Sun Exposure
  NoWind,                                 !- Wind Exposure
  ,                                       !- View Factor to Ground
  ,                                       !- Number of Vertices
  0, 7.8578694992133, 2.4384,             !- X,Y,Z Vertex 1 {m}
  0, 7.8578694992133, 0,                  !- X,Y,Z Vertex 2 {m}
  0, 0, 0,                                !- X,Y,Z Vertex 3 {m}
  0, 0, 2.4384;                           !- X,Y,Z Vertex 4 {m}

BuildingSurface:Detailed,
  Surface 30,                             !- Name
  Wall,                                   !- Surface Type
  WallFndGrndFinB,                        !- Construction Name
  finished basement zone,                 !- Zone Name
  Foundation,                             !- Outside Boundary Condition
  Foundation Kiva 1,                      !- Outside Boundary Condition Object
  NoSun,                                  !- Sun Exposure
  NoWind,                                 !- Wind Exposure
  ,                                       !- View Factor to Ground
  ,                                       !- Number of Vertices
  14.1441650985839, 7.8578694992133, 2.4384, !- X,Y,Z Vertex 1 {m}
  14.1441650985839, 7.8578694992133, 0,   !- X,Y,Z Vertex 2 {m}
  0, 7.8578694992133, 0,                  !- X,Y,Z Vertex 3 {m}
  0, 7.8578694992133, 2.4384;             !- X,Y,Z Vertex 4 {m}
