
OS:Version,
  {e5783aa7-9aee-4f2b-a1be-413a98dbf5b9}, !- Handle
  3.2.1;                                  !- Version Identifier

OS:Building,
  {c8b3f3c9-4445-425f-9273-33cb49970051}, !- Handle
  Building 1,                             !- Name
  ,                                       !- Building Sector Type
  0,                                      !- North Axis {deg}
  ,                                       !- Nominal Floor to Floor Height {m}
  ,                                       !- Space Type Name
  ,                                       !- Default Construction Set Name
  ,                                       !- Default Schedule Set Name
  3,                                      !- Standards Number of Stories
  2,                                      !- Standards Number of Above Ground Stories
  ,                                       !- Standards Template
  singlefamilydetached,                   !- Standards Building Type
  1;                                      !- Standards Number of Living Units

OS:Facility,
  {c5e053a5-9f4b-4e64-a627-b1fdc6dac555}; !- Handle

OS:Site,
  {fec64412-24da-489b-9e76-478bd9b0c0d3}, !- Handle
  Worchester Regional Arpt_MA_USA,        !- Name
  42.27,                                  !- Latitude {deg}
  -71.88,                                 !- Longitude {deg}
  -5,                                     !- Time Zone {hr}
  300,                                    !- Elevation {m}
  Suburbs;                                !- Terrain

OS:SimulationControl,
  {6fadaf25-714a-41e7-a54f-29e001822de4}, !- Handle
  ,                                       !- Do Zone Sizing Calculation
  ,                                       !- Do System Sizing Calculation
  ,                                       !- Do Plant Sizing Calculation
  No;                                     !- Run Simulation for Sizing Periods

OS:Sizing:Parameters,
  {63eaf4cd-809b-4c90-bae2-c401330dc47e}, !- Handle
  1.25,                                   !- Heating Sizing Factor
  1.15;                                   !- Cooling Sizing Factor

OS:Timestep,
  {b801e6ea-4a26-454f-97b2-92c2ee4f2f16}, !- Handle
  4;                                      !- Number of Timesteps per Hour

OS:ShadowCalculation,
  {28174d2f-c246-460b-81b3-6f33614b052d}, !- Handle
  PolygonClipping,                        !- Shading Calculation Method
  ,                                       !- Shading Calculation Update Frequency Method
  20,                                     !- Shading Calculation Update Frequency
  200,                                    !- Maximum Figures in Shadow Overlap Calculations
  ,                                       !- Polygon Clipping Algorithm
  512,                                    !- Pixel Counting Resolution
  DetailedSkyDiffuseModeling,             !- Sky Diffuse Modeling Algorithm
  No,                                     !- Output External Shading Calculation Results
  No,                                     !- Disable Self-Shading Within Shading Zone Groups
  No;                                     !- Disable Self-Shading From Shading Zone Groups to Other Zones

OS:HeatBalanceAlgorithm,
  {af7ff3ac-0593-4185-9d05-147bda31f4b4}, !- Handle
  ConductionTransferFunction,             !- Algorithm
  200;                                    !- Surface Temperature Upper Limit {C}

OS:RunPeriod,
  {fc804325-cfa5-4440-ae33-c86340f1b2bd}, !- Handle
  Run Period 1,                           !- Name
  1,                                      !- Begin Month
  1,                                      !- Begin Day of Month
  12,                                     !- End Month
  31,                                     !- End Day of Month
  ,                                       !- Use Weather File Holidays and Special Days
  ,                                       !- Use Weather File Daylight Saving Period
  ,                                       !- Apply Weekend Holiday Rule
  ,                                       !- Use Weather File Rain Indicators
  ,                                       !- Use Weather File Snow Indicators
  ;                                       !- Number of Times Runperiod to be Repeated

OS:LifeCycleCost:Parameters,
  {98af8a12-05de-456d-a1ff-09084b192bfa}, !- Handle
  ,                                       !- Analysis Type
  ,                                       !- Discounting Convention
  ,                                       !- Inflation Approach
  ,                                       !- Real Discount Rate
  ,                                       !- Nominal Discount Rate
  ,                                       !- Inflation
  ,                                       !- Base Date Month
  ,                                       !- Base Date Year
  ,                                       !- Service Date Month
  ,                                       !- Service Date Year
  ;                                       !- Length of Study Period in Years

OS:SurfaceConvectionAlgorithm:Outside,
  {5e620745-901b-4ac8-8162-ce80e2cb9ddf}, !- Handle
  DOE-2;                                  !- Algorithm

OS:SurfaceConvectionAlgorithm:Inside,
  {46229b67-dc45-4014-ba48-3bd98b8f806d}, !- Handle
  TARP;                                   !- Algorithm

OS:ZoneCapacitanceMultiplier:ResearchSpecial,
  {f1ef293f-7ee2-4fb0-95de-4b9e78a4a518}, !- Handle
  ,                                       !- Temperature Capacity Multiplier
  15,                                     !- Humidity Capacity Multiplier
  ;                                       !- Carbon Dioxide Capacity Multiplier

OS:YearDescription,
  {4f69c87e-305e-44d2-89f4-0fae929dbb9e}, !- Handle
  2018,                                   !- Calendar Year
  ,                                       !- Day of Week for Start Day
  ;                                       !- Is Leap Year

OS:AdditionalProperties,
  {4ac37d7c-cd66-4e99-8f5c-5d5fb421c63e}, !- Handle
  {c8b3f3c9-4445-425f-9273-33cb49970051}, !- Object Name
  Building ID,                            !- Feature Name 1
  Integer,                                !- Feature Data Type 1
  2642,                                   !- Feature Value 1
  num_occupants,                          !- Feature Name 2
  Integer,                                !- Feature Data Type 2
  1,                                      !- Feature Value 2
  Schedules Path,                         !- Feature Name 3
  String,                                 !- Feature Data Type 3
  /var/simdata/openstudio/run/schedules.csv, !- Feature Value 3
  Total Units Modeled,                    !- Feature Name 4
  Integer,                                !- Feature Data Type 4
  1,                                      !- Feature Value 4
  has_water_heater_flue,                  !- Feature Name 5
  Boolean,                                !- Feature Data Type 5
  true,                                   !- Feature Value 5
  has_hvac_flue,                          !- Feature Name 6
  Boolean,                                !- Feature Data Type 6
  true,                                   !- Feature Value 6
  has_fireplace_chimney,                  !- Feature Name 7
  Boolean,                                !- Feature Data Type 7
  false;                                  !- Feature Value 7

OS:WeatherFile,
  {264bd5ec-195b-45ca-a173-a9091c6010c0}, !- Handle
  Worchester Regional Arpt,               !- City
  MA,                                     !- State Province Region
  USA,                                    !- Country
  TMY3,                                   !- Data Source
  725095,                                 !- WMO Number
  42.27,                                  !- Latitude {deg}
  -71.88,                                 !- Longitude {deg}
  -5,                                     !- Time Zone {hr}
  300,                                    !- Elevation {m}
  C:/devel/community-thermal-resilience/ControlledStudy/Sandbox/USA_MA_Worcester.Rgnl.AP.725095_TMY3.epw, !- Url
  ABE9616A;                               !- Checksum

OS:AdditionalProperties,
  {2bcce760-0df1-4f03-b556-517560acc68b}, !- Handle
  {264bd5ec-195b-45ca-a173-a9091c6010c0}, !- Object Name
  EPWHeaderCity,                          !- Feature Name 1
  String,                                 !- Feature Data Type 1
  Worchester Regional Arpt,               !- Feature Value 1
  EPWHeaderState,                         !- Feature Name 2
  String,                                 !- Feature Data Type 2
  MA,                                     !- Feature Value 2
  EPWHeaderCountry,                       !- Feature Name 3
  String,                                 !- Feature Data Type 3
  USA,                                    !- Feature Value 3
  EPWHeaderDataSource,                    !- Feature Name 4
  String,                                 !- Feature Data Type 4
  TMY3,                                   !- Feature Value 4
  EPWHeaderStation,                       !- Feature Name 5
  String,                                 !- Feature Data Type 5
  725095,                                 !- Feature Value 5
  EPWHeaderLatitude,                      !- Feature Name 6
  Double,                                 !- Feature Data Type 6
  42.270000000000003,                     !- Feature Value 6
  EPWHeaderLongitude,                     !- Feature Name 7
  Double,                                 !- Feature Data Type 7
  -71.879999999999995,                    !- Feature Value 7
  EPWHeaderTimezone,                      !- Feature Name 8
  Double,                                 !- Feature Data Type 8
  -5,                                     !- Feature Value 8
  EPWHeaderAltitude,                      !- Feature Name 9
  Double,                                 !- Feature Data Type 9
  984.25196850393695,                     !- Feature Value 9
  EPWHeaderLocalPressure,                 !- Feature Name 10
  Double,                                 !- Feature Data Type 10
  0.96442764032592676,                    !- Feature Value 10
  EPWHeaderRecordsPerHour,                !- Feature Name 11
  Double,                                 !- Feature Data Type 11
  1,                                      !- Feature Value 11
  EPWDataAnnualAvgDrybulb,                !- Feature Name 12
  Double,                                 !- Feature Data Type 12
  46.417424657534269,                     !- Feature Value 12
  EPWDataAnnualMinDrybulb,                !- Feature Name 13
  Double,                                 !- Feature Data Type 13
  -11.019999999999996,                    !- Feature Value 13
  EPWDataAnnualMaxDrybulb,                !- Feature Name 14
  Double,                                 !- Feature Data Type 14
  89.960000000000008,                     !- Feature Value 14
  EPWDataCDD50F,                          !- Feature Name 15
  Double,                                 !- Feature Data Type 15
  2248.6725000000001,                     !- Feature Value 15
  EPWDataCDD65F,                          !- Feature Name 16
  Double,                                 !- Feature Data Type 16
  335.79000000000036,                     !- Feature Value 16
  EPWDataHDD50F,                          !- Feature Name 17
  Double,                                 !- Feature Data Type 17
  3556.3125000000032,                     !- Feature Value 17
  EPWDataHDD65F,                          !- Feature Name 18
  Double,                                 !- Feature Data Type 18
  7118.4299999999967,                     !- Feature Value 18
  EPWDataAnnualAvgWindspeed,              !- Feature Name 19
  Double,                                 !- Feature Data Type 19
  4.3161986301366539,                     !- Feature Value 19
  EPWDataMonthlyAvgDrybulbs,              !- Feature Name 20
  String,                                 !- Feature Data Type 20
  19.7641129032258&#4425.20017857142857&#4432.49596774193549&#4443.713749999999976&#4457.62387096774194&#4463.86125000000002&#4470.45999999999998&#4465.95225806451612&#4459.28775000000002&#4449.6709677419355&#4438.66725000000001&#4428.89911290322581, !- Feature Value 20
  EPWDataGroundMonthlyTemps,              !- Feature Name 21
  String,                                 !- Feature Data Type 21
  37.23146184277499&#4433.354116673699764&#4433.04360496757323&#4434.88360336868101&#4442.270171621418&#4449.6223301056865&#4455.99625858095959&#4460.03398550646904&#4460.37701258644864&#4457.09300038181988&#4450.881610824893755&#4443.754986617054726, !- Feature Value 21
  EPWDataWSF,                             !- Feature Name 22
  Double,                                 !- Feature Data Type 22
  0.58999999999999997,                    !- Feature Value 22
  EPWDataMonthlyAvgDailyHighDrybulbs,     !- Feature Name 23
  String,                                 !- Feature Data Type 23
  27.290967741935482&#4430.617857142857144&#4440.936129032258066&#4452.129999999999995&#4467.89548387096775&#4473.202&#4478.85225806451612&#4474.19548387096776&#4467.01599999999999&#4457.519354838709674&#4445.404&#4434.8741935483871, !- Feature Value 23
  EPWDataMonthlyAvgDailyLowDrybulbs,      !- Feature Name 24
  String,                                 !- Feature Data Type 24
  10.963225806451614&#4419.065714285714286&#4423.95225806451613&#4435.234&#4447.340645161290325&#4454.878&#4462.019354838709674&#4458.84322580645161&#4450.96&#4440.84903225806451&#4432.348&#4422.506451612903227, !- Feature Value 24
  EPWDesignHeatingDrybulb,                !- Feature Name 25
  Double,                                 !- Feature Data Type 25
  6.259999999999998,                      !- Feature Value 25
  EPWDesignHeatingWindspeed,              !- Feature Name 26
  Double,                                 !- Feature Data Type 26
  12.4,                                   !- Feature Value 26
  EPWDesignCoolingDrybulb,                !- Feature Name 27
  Double,                                 !- Feature Data Type 27
  83.120000000000005,                     !- Feature Value 27
  EPWDesignCoolingWetbulb,                !- Feature Name 28
  Double,                                 !- Feature Data Type 28
  69.980000000000004,                     !- Feature Value 28
  EPWDesignCoolingHumidityRatio,          !- Feature Name 29
  Double,                                 !- Feature Data Type 29
  0.013164717630141765,                   !- Feature Value 29
  EPWDesignCoolingWindspeed,              !- Feature Name 30
  Double,                                 !- Feature Data Type 30
  4.5999999999999996,                     !- Feature Value 30
  EPWDesignDailyTemperatureRange,         !- Feature Name 31
  Double,                                 !- Feature Data Type 31
  16.199999999999999,                     !- Feature Value 31
  EPWDesignDehumidDrybulb,                !- Feature Name 32
  Double,                                 !- Feature Data Type 32
  74.659999999999997,                     !- Feature Value 32
  EPWDesignDehumidHumidityRatio,          !- Feature Name 33
  Double,                                 !- Feature Data Type 33
  0.015536621683698243,                   !- Feature Value 33
  EPWDesignCoolingDirectNormal,           !- Feature Name 34
  Double,                                 !- Feature Data Type 34
  922,                                    !- Feature Value 34
  EPWDesignCoolingDiffuseHorizontal,      !- Feature Name 35
  Double,                                 !- Feature Data Type 35
  110;                                    !- Feature Value 35

OS:ClimateZones,
  {d5be6132-d0b7-44e5-981d-7192097c0c09}, !- Handle
  Building America,                       !- Climate Zone Institution Name 1
  ,                                       !- Climate Zone Document Name 1
  0,                                      !- Climate Zone Document Year 1
  Cold;                                   !- Climate Zone Value 1

OS:Site:WaterMainsTemperature,
  {aa8714cd-cdbd-4695-af9a-9b1b516e4e57}, !- Handle
  Correlation,                            !- Calculation Method
  ,                                       !- Temperature Schedule Name
  8.00968036529682,                       !- Annual Average Outdoor Air Temperature {C}
  28.1643817204301;                       !- Maximum Difference In Monthly Average Outdoor Air Temperatures {deltaC}

OS:RunPeriodControl:DaylightSavingTime,
  {de849366-dfcd-4952-bea6-d4716cb10bfd}, !- Handle
  3/10,                                   !- Start Date
  11/3;                                   !- End Date

OS:Site:GroundTemperature:Deep,
  {a8c33870-e07c-4e95-9e6d-7fc7815b3c66}, !- Handle
  8.00968036529682,                       !- January Deep Ground Temperature {C}
  8.00968036529682,                       !- February Deep Ground Temperature {C}
  8.00968036529682,                       !- March Deep Ground Temperature {C}
  8.00968036529682,                       !- April Deep Ground Temperature {C}
  8.00968036529682,                       !- May Deep Ground Temperature {C}
  8.00968036529682,                       !- June Deep Ground Temperature {C}
  8.00968036529682,                       !- July Deep Ground Temperature {C}
  8.00968036529682,                       !- August Deep Ground Temperature {C}
  8.00968036529682,                       !- September Deep Ground Temperature {C}
  8.00968036529682,                       !- October Deep Ground Temperature {C}
  8.00968036529682,                       !- November Deep Ground Temperature {C}
  8.00968036529682;                       !- December Deep Ground Temperature {C}

OS:ThermalZone,
  {2fb8a0b3-6473-4386-abe6-ded52aa7dd8d}, !- Handle
  living zone,                            !- Name
  ,                                       !- Multiplier
  ,                                       !- Ceiling Height {m}
  ,                                       !- Volume {m3}
  ,                                       !- Floor Area {m2}
  ,                                       !- Zone Inside Convection Algorithm
  ,                                       !- Zone Outside Convection Algorithm
  ,                                       !- Zone Conditioning Equipment List Name
  {448d2d9b-85bc-45a4-a872-9f1feeaed96f}, !- Zone Air Inlet Port List
  {b93d90f3-d484-485e-8e0e-c970bfb02499}, !- Zone Air Exhaust Port List
  {63d9372a-732a-47ce-b8f4-b86ae2e8af6b}, !- Zone Air Node Name
  {1e0d2a7a-17cc-4cca-af9c-8053cb8625ce}, !- Zone Return Air Port List
  ,                                       !- Primary Daylighting Control Name
  ,                                       !- Fraction of Zone Controlled by Primary Daylighting Control
  ,                                       !- Secondary Daylighting Control Name
  ,                                       !- Fraction of Zone Controlled by Secondary Daylighting Control
  ,                                       !- Illuminance Map Name
  ,                                       !- Group Rendering Name
  {1543a5e2-0e06-45ed-be11-8d6f1841e021}, !- Thermostat Name
  No;                                     !- Use Ideal Air Loads

OS:Node,
  {34a44834-162f-4a37-b669-e2bd85e768b3}, !- Handle
  Node 1,                                 !- Name
  {63d9372a-732a-47ce-b8f4-b86ae2e8af6b}, !- Inlet Port
  ;                                       !- Outlet Port

OS:Connection,
  {63d9372a-732a-47ce-b8f4-b86ae2e8af6b}, !- Handle
  {2fb8a0b3-6473-4386-abe6-ded52aa7dd8d}, !- Source Object
  11,                                     !- Outlet Port
  {34a44834-162f-4a37-b669-e2bd85e768b3}, !- Target Object
  2;                                      !- Inlet Port

OS:PortList,
  {448d2d9b-85bc-45a4-a872-9f1feeaed96f}, !- Handle
  {2fb8a0b3-6473-4386-abe6-ded52aa7dd8d}, !- HVAC Component
  {df7812bd-7fa2-44ed-b4f7-331f6255f90d}, !- Port 1
  {f68f7416-d22f-4aa5-943d-29c485f2fddd}; !- Port 2

OS:PortList,
  {b93d90f3-d484-485e-8e0e-c970bfb02499}, !- Handle
  {2fb8a0b3-6473-4386-abe6-ded52aa7dd8d}; !- HVAC Component

OS:PortList,
  {1e0d2a7a-17cc-4cca-af9c-8053cb8625ce}, !- Handle
  {2fb8a0b3-6473-4386-abe6-ded52aa7dd8d}, !- HVAC Component
  {fb61052a-da97-40b0-97d1-c9765f41f614}, !- Port 1
  {11c783ab-c4b6-4cd5-9108-e40b2df6d1e6}; !- Port 2

OS:Sizing:Zone,
  {2163ea16-eab7-4f44-89cc-d44bc8dd7fa2}, !- Handle
  {2fb8a0b3-6473-4386-abe6-ded52aa7dd8d}, !- Zone or ZoneList Name
  SupplyAirTemperature,                   !- Zone Cooling Design Supply Air Temperature Input Method
  14,                                     !- Zone Cooling Design Supply Air Temperature {C}
  11.11,                                  !- Zone Cooling Design Supply Air Temperature Difference {deltaC}
  SupplyAirTemperature,                   !- Zone Heating Design Supply Air Temperature Input Method
  40,                                     !- Zone Heating Design Supply Air Temperature {C}
  11.11,                                  !- Zone Heating Design Supply Air Temperature Difference {deltaC}
  0.0085,                                 !- Zone Cooling Design Supply Air Humidity Ratio {kg-H2O/kg-air}
  0.008,                                  !- Zone Heating Design Supply Air Humidity Ratio {kg-H2O/kg-air}
  ,                                       !- Zone Heating Sizing Factor
  ,                                       !- Zone Cooling Sizing Factor
  DesignDay,                              !- Cooling Design Air Flow Method
  ,                                       !- Cooling Design Air Flow Rate {m3/s}
  ,                                       !- Cooling Minimum Air Flow per Zone Floor Area {m3/s-m2}
  ,                                       !- Cooling Minimum Air Flow {m3/s}
  ,                                       !- Cooling Minimum Air Flow Fraction
  DesignDay,                              !- Heating Design Air Flow Method
  ,                                       !- Heating Design Air Flow Rate {m3/s}
  ,                                       !- Heating Maximum Air Flow per Zone Floor Area {m3/s-m2}
  ,                                       !- Heating Maximum Air Flow {m3/s}
  ,                                       !- Heating Maximum Air Flow Fraction
  No,                                     !- Account for Dedicated Outdoor Air System
  NeutralSupplyAir,                       !- Dedicated Outdoor Air System Control Strategy
  autosize,                               !- Dedicated Outdoor Air Low Setpoint Temperature for Design {C}
  autosize;                               !- Dedicated Outdoor Air High Setpoint Temperature for Design {C}

OS:ZoneHVAC:EquipmentList,
  {28793f2a-298e-4831-b207-b6bae3a156d4}, !- Handle
  Zone HVAC Equipment List 1,             !- Name
  {2fb8a0b3-6473-4386-abe6-ded52aa7dd8d}, !- Thermal Zone
  SequentialLoad,                         !- Load Distribution Scheme
  {65ee8418-ecef-41fc-8a9e-e6e6a7fa2bac}, !- Zone Equipment 1
  1,                                      !- Zone Equipment Cooling Sequence 1
  1,                                      !- Zone Equipment Heating or No-Load Sequence 1
  ,                                       !- Zone Equipment Sequential Cooling Fraction Schedule Name 1
  ,                                       !- Zone Equipment Sequential Heating Fraction Schedule Name 1
  {e6883542-a5ad-4876-9b4a-2219a49e8c2a}, !- Zone Equipment 2
  2,                                      !- Zone Equipment Cooling Sequence 2
  2,                                      !- Zone Equipment Heating or No-Load Sequence 2
  ,                                       !- Zone Equipment Sequential Cooling Fraction Schedule Name 2
  ;                                       !- Zone Equipment Sequential Heating Fraction Schedule Name 2

OS:ThermalZone,
  {779192d4-0d5d-42d5-b7eb-043fb42a8847}, !- Handle
  garage zone,                            !- Name
  ,                                       !- Multiplier
  ,                                       !- Ceiling Height {m}
  ,                                       !- Volume {m3}
  ,                                       !- Floor Area {m2}
  ,                                       !- Zone Inside Convection Algorithm
  ,                                       !- Zone Outside Convection Algorithm
  ,                                       !- Zone Conditioning Equipment List Name
  {dc473c3e-54cc-405b-be33-091b45fad616}, !- Zone Air Inlet Port List
  {8277748e-7206-41c8-b71a-f1962040cb5e}, !- Zone Air Exhaust Port List
  {96a65972-de2b-49d0-bb94-1f971d412715}, !- Zone Air Node Name
  {0c7ab134-9946-4168-94e5-1ca12a35199f}, !- Zone Return Air Port List
  ,                                       !- Primary Daylighting Control Name
  ,                                       !- Fraction of Zone Controlled by Primary Daylighting Control
  ,                                       !- Secondary Daylighting Control Name
  ,                                       !- Fraction of Zone Controlled by Secondary Daylighting Control
  ,                                       !- Illuminance Map Name
  ,                                       !- Group Rendering Name
  ,                                       !- Thermostat Name
  No;                                     !- Use Ideal Air Loads

OS:Node,
  {54b9eaa2-b0c8-40d7-ba1a-3aac88ea7925}, !- Handle
  Node 2,                                 !- Name
  {96a65972-de2b-49d0-bb94-1f971d412715}, !- Inlet Port
  ;                                       !- Outlet Port

OS:Connection,
  {96a65972-de2b-49d0-bb94-1f971d412715}, !- Handle
  {779192d4-0d5d-42d5-b7eb-043fb42a8847}, !- Source Object
  11,                                     !- Outlet Port
  {54b9eaa2-b0c8-40d7-ba1a-3aac88ea7925}, !- Target Object
  2;                                      !- Inlet Port

OS:PortList,
  {dc473c3e-54cc-405b-be33-091b45fad616}, !- Handle
  {779192d4-0d5d-42d5-b7eb-043fb42a8847}; !- HVAC Component

OS:PortList,
  {8277748e-7206-41c8-b71a-f1962040cb5e}, !- Handle
  {779192d4-0d5d-42d5-b7eb-043fb42a8847}; !- HVAC Component

OS:PortList,
  {0c7ab134-9946-4168-94e5-1ca12a35199f}, !- Handle
  {779192d4-0d5d-42d5-b7eb-043fb42a8847}; !- HVAC Component

OS:Sizing:Zone,
  {6a6a9091-9de9-4fbd-9690-4cb05afb34b7}, !- Handle
  {779192d4-0d5d-42d5-b7eb-043fb42a8847}, !- Zone or ZoneList Name
  SupplyAirTemperature,                   !- Zone Cooling Design Supply Air Temperature Input Method
  14,                                     !- Zone Cooling Design Supply Air Temperature {C}
  11.11,                                  !- Zone Cooling Design Supply Air Temperature Difference {deltaC}
  SupplyAirTemperature,                   !- Zone Heating Design Supply Air Temperature Input Method
  40,                                     !- Zone Heating Design Supply Air Temperature {C}
  11.11,                                  !- Zone Heating Design Supply Air Temperature Difference {deltaC}
  0.0085,                                 !- Zone Cooling Design Supply Air Humidity Ratio {kg-H2O/kg-air}
  0.008,                                  !- Zone Heating Design Supply Air Humidity Ratio {kg-H2O/kg-air}
  ,                                       !- Zone Heating Sizing Factor
  ,                                       !- Zone Cooling Sizing Factor
  DesignDay,                              !- Cooling Design Air Flow Method
  ,                                       !- Cooling Design Air Flow Rate {m3/s}
  ,                                       !- Cooling Minimum Air Flow per Zone Floor Area {m3/s-m2}
  ,                                       !- Cooling Minimum Air Flow {m3/s}
  ,                                       !- Cooling Minimum Air Flow Fraction
  DesignDay,                              !- Heating Design Air Flow Method
  ,                                       !- Heating Design Air Flow Rate {m3/s}
  ,                                       !- Heating Maximum Air Flow per Zone Floor Area {m3/s-m2}
  ,                                       !- Heating Maximum Air Flow {m3/s}
  ,                                       !- Heating Maximum Air Flow Fraction
  No,                                     !- Account for Dedicated Outdoor Air System
  NeutralSupplyAir,                       !- Dedicated Outdoor Air System Control Strategy
  autosize,                               !- Dedicated Outdoor Air Low Setpoint Temperature for Design {C}
  autosize;                               !- Dedicated Outdoor Air High Setpoint Temperature for Design {C}

OS:ZoneHVAC:EquipmentList,
  {e62a46be-b2f5-4a72-a215-277111ac8aff}, !- Handle
  Zone HVAC Equipment List 2,             !- Name
  {779192d4-0d5d-42d5-b7eb-043fb42a8847}; !- Thermal Zone

OS:Space,
  {f8e0050d-be43-4080-a486-2e004c895cf7}, !- Handle
  garage space,                           !- Name
  {34fc90d4-8c45-4935-a65f-4480aeaa1f45}, !- Space Type Name
  ,                                       !- Default Construction Set Name
  ,                                       !- Default Schedule Set Name
  -0,                                     !- Direction of Relative North {deg}
  0,                                      !- X Origin {m}
  0,                                      !- Y Origin {m}
  0,                                      !- Z Origin {m}
  ,                                       !- Building Story Name
  {779192d4-0d5d-42d5-b7eb-043fb42a8847}; !- Thermal Zone Name

OS:Surface,
  {dc257ba8-e455-4c14-b12a-f6c1429c63b9}, !- Handle
  Surface 1,                              !- Name
  Floor,                                  !- Surface Type
  {c40713fa-6651-4433-b48c-6719cfe5c347}, !- Construction Name
  {f8e0050d-be43-4080-a486-2e004c895cf7}, !- Space Name
  Foundation,                             !- Outside Boundary Condition
  {d5ddc980-220e-4736-b59d-413e796a56c5}, !- Outside Boundary Condition Object
  NoSun,                                  !- Sun Exposure
  NoWind,                                 !- Wind Exposure
  ,                                       !- View Factor to Ground
  ,                                       !- Number of Vertices