
OS:Version,
  {d0a9c42b-4411-4f86-8adb-dd9418d3cedd}, !- Handle
  3.2.1;                                  !- Version Identifier

OS:Building,
  {43d81de0-dba9-488d-afc0-8ea95e65ff33}, !- Handle
  Building 1,                             !- Name
  ,                                       !- Building Sector Type
  225,                                    !- North Axis {deg}
  ,                                       !- Nominal Floor to Floor Height {m}
  ,                                       !- Space Type Name
  ,                                       !- Default Construction Set Name
  ,                                       !- Default Schedule Set Name
  2,                                      !- Standards Number of Stories
  2,                                      !- Standards Number of Above Ground Stories
  ,                                       !- Standards Template
  singlefamilydetached,                   !- Standards Building Type
  1;                                      !- Standards Number of Living Units

OS:Facility,
  {80e70bee-3e2e-4260-9bae-45c17ded5843}; !- Handle

OS:Site,
  {7b30d13a-bc0f-4456-a294-ba9526976b3d}, !- Handle
  Worchester Regional Arpt_MA_USA,        !- Name
  42.27,                                  !- Latitude {deg}
  -71.88,                                 !- Longitude {deg}
  -5,                                     !- Time Zone {hr}
  300,                                    !- Elevation {m}
  Suburbs;                                !- Terrain

OS:SimulationControl,
  {170a9d79-5b63-4b98-8174-b46874d51739}, !- Handle
  ,                                       !- Do Zone Sizing Calculation
  ,                                       !- Do System Sizing Calculation
  ,                                       !- Do Plant Sizing Calculation
  No;                                     !- Run Simulation for Sizing Periods

OS:Sizing:Parameters,
  {40dc2bf4-b2a6-442a-bb77-ab69f75f8081}, !- Handle
  1.25,                                   !- Heating Sizing Factor
  1.15;                                   !- Cooling Sizing Factor

OS:Timestep,
  {7e9f7714-4bfc-4703-aaba-e9722a0bd687}, !- Handle
  4;                                      !- Number of Timesteps per Hour

OS:ShadowCalculation,
  {714f92ed-c19c-4acf-bc92-4cbae7f81a45}, !- Handle
  PolygonClipping,                        !- Shading Calculation Method
  ,                                       !- Shading Calculation Update Frequency Method
  20,                                     !- Shading Calculation Update Frequency
  200,                                    !- Maximum Figures in Shadow Overlap Calculations
  ,                                       !- Polygon Clipping Algorithm
  512,                                    !- Pixel Counting Resolution
  DetailedSkyDiffuseModeling,             !- Sky Diffuse Modeling Algorithm
  No,                                     !- Output External Shading Calculation Results
  No,                                     !- Disable Self-Shading Within Shading Zone Groups
  No;                                     !- Disable Self-Shading From Shading Zone Groups to Other Zones

OS:HeatBalanceAlgorithm,
  {fada670e-2071-4524-b7bb-97447c98f1b2}, !- Handle
  ConductionTransferFunction,             !- Algorithm
  200;                                    !- Surface Temperature Upper Limit {C}

OS:RunPeriod,
  {fdd8aa2d-1136-4d00-a253-465849fb411f}, !- Handle
  Run Period 1,                           !- Name
  1,                                      !- Begin Month
  1,                                      !- Begin Day of Month
  12,                                     !- End Month
  31,                                     !- End Day of Month
  ,                                       !- Use Weather File Holidays and Special Days
  ,                                       !- Use Weather File Daylight Saving Period
  ,                                       !- Apply Weekend Holiday Rule
  ,                                       !- Use Weather File Rain Indicators
  ,                                       !- Use Weather File Snow Indicators
  ;                                       !- Number of Times Runperiod to be Repeated

OS:LifeCycleCost:Parameters,
  {22e06522-da87-4507-9209-ecc4566f57a9}, !- Handle
  ,                                       !- Analysis Type
  ,                                       !- Discounting Convention
  ,                                       !- Inflation Approach
  ,                                       !- Real Discount Rate
  ,                                       !- Nominal Discount Rate
  ,                                       !- Inflation
  ,                                       !- Base Date Month
  ,                                       !- Base Date Year
  ,                                       !- Service Date Month
  ,                                       !- Service Date Year
  ;                                       !- Length of Study Period in Years

OS:SurfaceConvectionAlgorithm:Outside,
  {b6e43e10-3c76-46a5-a917-af5be0aaa8ab}, !- Handle
  DOE-2;                                  !- Algorithm

OS:SurfaceConvectionAlgorithm:Inside,
  {986f946e-abde-4000-bcac-76a8dc0a4dd6}, !- Handle
  TARP;                                   !- Algorithm

OS:ZoneCapacitanceMultiplier:ResearchSpecial,
  {f68e27c2-6def-4e3d-8dae-d60b868da2c1}, !- Handle
  ,                                       !- Temperature Capacity Multiplier
  15,                                     !- Humidity Capacity Multiplier
  ;                                       !- Carbon Dioxide Capacity Multiplier

OS:YearDescription,
  {62babf64-115b-47df-b538-3aeff01c2310}, !- Handle
  2018,                                   !- Calendar Year
  ,                                       !- Day of Week for Start Day
  ;                                       !- Is Leap Year

OS:AdditionalProperties,
  {3ff3b8ba-e68b-4c5d-82b6-f880a79281e0}, !- Handle
  {43d81de0-dba9-488d-afc0-8ea95e65ff33}, !- Object Name
  Building ID,                            !- Feature Name 1
  Integer,                                !- Feature Data Type 1
  109150,                                 !- Feature Value 1
  num_occupants,                          !- Feature Name 2
  Integer,                                !- Feature Data Type 2
  4,                                      !- Feature Value 2
  Schedules Path,                         !- Feature Name 3
  String,                                 !- Feature Data Type 3
  /var/simdata/openstudio/run/schedules_outage.csv, !- Feature Value 3
  Total Units Modeled,                    !- Feature Name 4
  Integer,                                !- Feature Data Type 4
  1,                                      !- Feature Value 4
  has_water_heater_flue,                  !- Feature Name 5
  Boolean,                                !- Feature Data Type 5
  false,                                  !- Feature Value 5
  has_hvac_flue,                          !- Feature Name 6
  Boolean,                                !- Feature Data Type 6
  false,                                  !- Feature Value 6
  has_fireplace_chimney,                  !- Feature Name 7
  Boolean,                                !- Feature Data Type 7
  false;                                  !- Feature Value 7

OS:WeatherFile,
  {6620c341-11d9-4d33-bcf7-8e2680df791c}, !- Handle
  Worchester Regional Arpt,               !- City
  MA,                                     !- State Province Region
  USA,                                    !- Country
  TMY3,                                   !- Data Source
  725095,                                 !- WMO Number
  42.27,                                  !- Latitude {deg}
  -71.88,                                 !- Longitude {deg}
  -5,                                     !- Time Zone {hr}
  300,                                    !- Elevation {m}
  C:/devel/community-thermal-resilience/ControlledStudy/Roof/USA_MA_Worcester.Rgnl.AP.725095_TMY3.epw, !- Url
  ABE9616A;                               !- Checksum

OS:AdditionalProperties,
  {2be137a1-727b-4fa2-a126-da39727fa89b}, !- Handle
  {6620c341-11d9-4d33-bcf7-8e2680df791c}, !- Object Name
  EPWHeaderCity,                          !- Feature Name 1
  String,                                 !- Feature Data Type 1
  Worchester Regional Arpt,               !- Feature Value 1
  EPWHeaderState,                         !- Feature Name 2
  String,                                 !- Feature Data Type 2
  MA,                                     !- Feature Value 2
  EPWHeaderCountry,                       !- Feature Name 3
  String,                                 !- Feature Data Type 3
  USA,                                    !- Feature Value 3
  EPWHeaderDataSource,                    !- Feature Name 4
  String,                                 !- Feature Data Type 4
  TMY3,                                   !- Feature Value 4
  EPWHeaderStation,                       !- Feature Name 5
  String,                                 !- Feature Data Type 5
  725095,                                 !- Feature Value 5
  EPWHeaderLatitude,                      !- Feature Name 6
  Double,                                 !- Feature Data Type 6
  42.270000000000003,                     !- Feature Value 6
  EPWHeaderLongitude,                     !- Feature Name 7
  Double,                                 !- Feature Data Type 7
  -71.879999999999995,                    !- Feature Value 7
  EPWHeaderTimezone,                      !- Feature Name 8
  Double,                                 !- Feature Data Type 8
  -5,                                     !- Feature Value 8
  EPWHeaderAltitude,                      !- Feature Name 9
  Double,                                 !- Feature Data Type 9
  984.25196850393695,                     !- Feature Value 9
  EPWHeaderLocalPressure,                 !- Feature Name 10
  Double,                                 !- Feature Data Type 10
  0.96442764032592676,                    !- Feature Value 10
  EPWHeaderRecordsPerHour,                !- Feature Name 11
  Double,                                 !- Feature Data Type 11
  1,                                      !- Feature Value 11
  EPWDataAnnualAvgDrybulb,                !- Feature Name 12
  Double,                                 !- Feature Data Type 12
  46.417424657534269,                     !- Feature Value 12
  EPWDataAnnualMinDrybulb,                !- Feature Name 13
  Double,                                 !- Feature Data Type 13
  -11.019999999999996,                    !- Feature Value 13
  EPWDataAnnualMaxDrybulb,                !- Feature Name 14
  Double,                                 !- Feature Data Type 14
  89.960000000000008,                     !- Feature Value 14
  EPWDataCDD50F,                          !- Feature Name 15
  Double,                                 !- Feature Data Type 15
  2248.6725000000001,                     !- Feature Value 15
  EPWDataCDD65F,                          !- Feature Name 16
  Double,                                 !- Feature Data Type 16
  335.79000000000036,                     !- Feature Value 16
  EPWDataHDD50F,                          !- Feature Name 17
  Double,                                 !- Feature Data Type 17
  3556.3125000000032,                     !- Feature Value 17
  EPWDataHDD65F,                          !- Feature Name 18
  Double,                                 !- Feature Data Type 18
  7118.4299999999967,                     !- Feature Value 18
  EPWDataAnnualAvgWindspeed,              !- Feature Name 19
  Double,                                 !- Feature Data Type 19
  4.3161986301366539,                     !- Feature Value 19
  EPWDataMonthlyAvgDrybulbs,              !- Feature Name 20
  String,                                 !- Feature Data Type 20
  19.7641129032258&#4425.20017857142857&#4432.49596774193549&#4443.713749999999976&#4457.62387096774194&#4463.86125000000002&#4470.45999999999998&#4465.95225806451612&#4459.28775000000002&#4449.6709677419355&#4438.66725000000001&#4428.89911290322581, !- Feature Value 20
  EPWDataGroundMonthlyTemps,              !- Feature Name 21
  String,                                 !- Feature Data Type 21
  37.23146184277499&#4433.354116673699764&#4433.04360496757323&#4434.88360336868101&#4442.270171621418&#4449.6223301056865&#4455.99625858095959&#4460.03398550646904&#4460.37701258644864&#4457.09300038181988&#4450.881610824893755&#4443.754986617054726, !- Feature Value 21
  EPWDataWSF,                             !- Feature Name 22
  Double,                                 !- Feature Data Type 22
  0.58999999999999997,                    !- Feature Value 22
  EPWDataMonthlyAvgDailyHighDrybulbs,     !- Feature Name 23
  String,                                 !- Feature Data Type 23
  27.290967741935482&#4430.617857142857144&#4440.936129032258066&#4452.129999999999995&#4467.89548387096775&#4473.202&#4478.85225806451612&#4474.19548387096776&#4467.01599999999999&#4457.519354838709674&#4445.404&#4434.8741935483871, !- Feature Value 23
  EPWDataMonthlyAvgDailyLowDrybulbs,      !- Feature Name 24
  String,                                 !- Feature Data Type 24
  10.963225806451614&#4419.065714285714286&#4423.95225806451613&#4435.234&#4447.340645161290325&#4454.878&#4462.019354838709674&#4458.84322580645161&#4450.96&#4440.84903225806451&#4432.348&#4422.506451612903227, !- Feature Value 24
  EPWDesignHeatingDrybulb,                !- Feature Name 25
  Double,                                 !- Feature Data Type 25
  6.259999999999998,                      !- Feature Value 25
  EPWDesignHeatingWindspeed,              !- Feature Name 26
  Double,                                 !- Feature Data Type 26
  12.4,                                   !- Feature Value 26
  EPWDesignCoolingDrybulb,                !- Feature Name 27
  Double,                                 !- Feature Data Type 27
  83.120000000000005,                     !- Feature Value 27
  EPWDesignCoolingWetbulb,                !- Feature Name 28
  Double,                                 !- Feature Data Type 28
  69.980000000000004,                     !- Feature Value 28
  EPWDesignCoolingHumidityRatio,          !- Feature Name 29
  Double,                                 !- Feature Data Type 29
  0.013164717630141765,                   !- Feature Value 29
  EPWDesignCoolingWindspeed,              !- Feature Name 30
  Double,                                 !- Feature Data Type 30
  4.5999999999999996,                     !- Feature Value 30
  EPWDesignDailyTemperatureRange,         !- Feature Name 31
  Double,                                 !- Feature Data Type 31
  16.199999999999999,                     !- Feature Value 31
  EPWDesignDehumidDrybulb,                !- Feature Name 32
  Double,                                 !- Feature Data Type 32
  74.659999999999997,                     !- Feature Value 32
  EPWDesignDehumidHumidityRatio,          !- Feature Name 33
  Double,                                 !- Feature Data Type 33
  0.015536621683698243,                   !- Feature Value 33
  EPWDesignCoolingDirectNormal,           !- Feature Name 34
  Double,                                 !- Feature Data Type 34
  922,                                    !- Feature Value 34
  EPWDesignCoolingDiffuseHorizontal,      !- Feature Name 35
  Double,                                 !- Feature Data Type 35
  110;                                    !- Feature Value 35

OS:ClimateZones,
  {8581897b-5f72-4cc1-897f-884f76cf046e}, !- Handle
  Building America,                       !- Climate Zone Institution Name 1
  ,                                       !- Climate Zone Document Name 1
  0,                                      !- Climate Zone Document Year 1
  Cold;                                   !- Climate Zone Value 1

OS:Site:WaterMainsTemperature,
  {e61b7cf7-a67d-4760-a96c-348dedfe4c85}, !- Handle
  Correlation,                            !- Calculation Method
  ,                                       !- Temperature Schedule Name
  8.00968036529682,                       !- Annual Average Outdoor Air Temperature {C}
  28.1643817204301;                       !- Maximum Difference In Monthly Average Outdoor Air Temperatures {deltaC}

OS:RunPeriodControl:DaylightSavingTime,
  {9b380d0e-2f22-48cb-b287-3bc27576c693}, !- Handle
  3/10,                                   !- Start Date
  11/3;                                   !- End Date

OS:Site:GroundTemperature:Deep,
  {ce76c042-1a76-4ca1-ac5c-6b5fe7b6a379}, !- Handle
  8.00968036529682,                       !- January Deep Ground Temperature {C}
  8.00968036529682,                       !- February Deep Ground Temperature {C}
  8.00968036529682,                       !- March Deep Ground Temperature {C}
  8.00968036529682,                       !- April Deep Ground Temperature {C}
  8.00968036529682,                       !- May Deep Ground Temperature {C}
  8.00968036529682,                       !- June Deep Ground Temperature {C}
  8.00968036529682,                       !- July Deep Ground Temperature {C}
  8.00968036529682,                       !- August Deep Ground Temperature {C}
  8.00968036529682,                       !- September Deep Ground Temperature {C}
  8.00968036529682,                       !- October Deep Ground Temperature {C}
  8.00968036529682,                       !- November Deep Ground Temperature {C}
  8.00968036529682;                       !- December Deep Ground Temperature {C}

OS:ThermalZone,
  {16cf6221-aace-4497-83e2-2397df1807ee}, !- Handle
  living zone,                            !- Name
  ,                                       !- Multiplier
  ,                                       !- Ceiling Height {m}
  ,                                       !- Volume {m3}
  ,                                       !- Floor Area {m2}
  ,                                       !- Zone Inside Convection Algorithm
  ,                                       !- Zone Outside Convection Algorithm
  ,                                       !- Zone Conditioning Equipment List Name
  {be33095d-1d5c-440c-9b73-96a7fa4315e8}, !- Zone Air Inlet Port List
  {a4e8f6ac-70cf-4223-a4f9-0c9d3f605666}, !- Zone Air Exhaust Port List
  {78be6f94-eb6f-456b-9a60-887e5cbe0e03}, !- Zone Air Node Name
  {da01beb3-38c8-4dd1-82f6-9779095b2936}, !- Zone Return Air Port List
  ,                                       !- Primary Daylighting Control Name
  ,                                       !- Fraction of Zone Controlled by Primary Daylighting Control
  ,                                       !- Secondary Daylighting Control Name
  ,                                       !- Fraction of Zone Controlled by Secondary Daylighting Control
  ,                                       !- Illuminance Map Name
  ,                                       !- Group Rendering Name
  {ae8b57d2-2c4b-4b9c-8bab-c03366dc07db}, !- Thermostat Name
  No;                                     !- Use Ideal Air Loads

OS:Node,
  {cccff03d-73d6-43e0-af8c-3099086dff9c}, !- Handle
  Node 1,                                 !- Name
  {78be6f94-eb6f-456b-9a60-887e5cbe0e03}, !- Inlet Port
  ;                                       !- Outlet Port

OS:Connection,
  {78be6f94-eb6f-456b-9a60-887e5cbe0e03}, !- Handle
  {16cf6221-aace-4497-83e2-2397df1807ee}, !- Source Object
  11,                                     !- Outlet Port
  {cccff03d-73d6-43e0-af8c-3099086dff9c}, !- Target Object
  2;                                      !- Inlet Port

OS:PortList,
  {be33095d-1d5c-440c-9b73-96a7fa4315e8}, !- Handle
  {16cf6221-aace-4497-83e2-2397df1807ee}, !- HVAC Component
  {11572fe5-651a-4e28-9633-4ddfd03383e8}, !- Port 1
  {45821113-bad7-4225-934a-6bf4464c43e1}; !- Port 2

OS:PortList,
  {a4e8f6ac-70cf-4223-a4f9-0c9d3f605666}, !- Handle
  {16cf6221-aace-4497-83e2-2397df1807ee}, !- HVAC Component
  {ba2f4cd9-f685-4e05-bdf8-a0db1ec37fb2}; !- Port 1

OS:PortList,
  {da01beb3-38c8-4dd1-82f6-9779095b2936}, !- Handle
  {16cf6221-aace-4497-83e2-2397df1807ee}, !- HVAC Component
  {fd01d362-2e45-4b7a-8590-4d383e3b5d35}; !- Port 1

OS:Sizing:Zone,
  {06d218cb-e3ac-4faa-8984-48e18ad98203}, !- Handle
  {16cf6221-aace-4497-83e2-2397df1807ee}, !- Zone or ZoneList Name
  SupplyAirTemperature,                   !- Zone Cooling Design Supply Air Temperature Input Method
  14,                                     !- Zone Cooling Design Supply Air Temperature {C}
  11.11,                                  !- Zone Cooling Design Supply Air Temperature Difference {deltaC}
  SupplyAirTemperature,                   !- Zone Heating Design Supply Air Temperature Input Method
  40,                                     !- Zone Heating Design Supply Air Temperature {C}
  11.11,                                  !- Zone Heating Design Supply Air Temperature Difference {deltaC}
  0.0085,                                 !- Zone Cooling Design Supply Air Humidity Ratio {kg-H2O/kg-air}
  0.008,                                  !- Zone Heating Design Supply Air Humidity Ratio {kg-H2O/kg-air}
  ,                                       !- Zone Heating Sizing Factor
  ,                                       !- Zone Cooling Sizing Factor
  DesignDay,                              !- Cooling Design Air Flow Method
  ,                                       !- Cooling Design Air Flow Rate {m3/s}
  ,                                       !- Cooling Minimum Air Flow per Zone Floor Area {m3/s-m2}
  ,                                       !- Cooling Minimum Air Flow {m3/s}
  ,                                       !- Cooling Minimum Air Flow Fraction
  DesignDay,                              !- Heating Design Air Flow Method
  ,                                       !- Heating Design Air Flow Rate {m3/s}
  ,                                       !- Heating Maximum Air Flow per Zone Floor Area {m3/s-m2}
  ,                                       !- Heating Maximum Air Flow {m3/s}
  ,                                       !- Heating Maximum Air Flow Fraction
  No,                                     !- Account for Dedicated Outdoor Air System
  NeutralSupplyAir,                       !- Dedicated Outdoor Air System Control Strategy
  autosize,                               !- Dedicated Outdoor Air Low Setpoint Temperature for Design {C}
  autosize;                               !- Dedicated Outdoor Air High Setpoint Temperature for Design {C}

OS:ZoneHVAC:EquipmentList,
  {098b2251-441b-45d0-a2c1-f989f892f161}, !- Handle
  Zone HVAC Equipment List 1,             !- Name
  {16cf6221-aace-4497-83e2-2397df1807ee}, !- Thermal Zone
  SequentialLoad,                         !- Load Distribution Scheme
  {6663a08b-4297-46a5-8418-7e45c8681937}, !- Zone Equipment 1
  1,                                      !- Zone Equipment Cooling Sequence 1
  1,                                      !- Zone Equipment Heating or No-Load Sequence 1
  ,                                       !- Zone Equipment Sequential Cooling Fraction Schedule Name 1
  ,                                       !- Zone Equipment Sequential Heating Fraction Schedule Name 1
  {26f0f5f6-335b-4d93-aa07-17361655a743}, !- Zone Equipment 2
  2,                                      !- Zone Equipment Cooling Sequence 2
  2,                                      !- Zone Equipment Heating or No-Load Sequence 2
  ,                                       !- Zone Equipment Sequential Cooling Fraction Schedule Name 2
  ;                                       !- Zone Equipment Sequential Heating Fraction Schedule Name 2

OS:Space,
  {131b8222-59a5-44f7-ad2d-58398bef6043}, !- Handle
  living space,                           !- Name
  {203ac193-ec93-43f4-a64d-8a487e1cfdfc}, !- Space Type Name
  ,                                       !- Default Construction Set Name
  ,                                       !- Default Schedule Set Name
  -0,                                     !- Direction of Relative North {deg}
  0,                                      !- X Origin {m}
  0,                                      !- Y Origin {m}
  0,                                      !- Z Origin {m}
  ,                                       !- Building Story Name
  {16cf6221-aace-4497-83e2-2397df1807ee}, !- Thermal Zone Name
  ,                                       !- Part of Total Floor Area
  ,                                       !- Design Specification Outdoor Air Object Name
  {ab4e5d24-572f-4552-8b88-0dc44063e9b8}; !- Building Unit Name

OS:Surface,
  {a8250e27-7975-4746-8935-a3932cd1606d}, !- Handle
  Surface 1,                              !- Name
  Floor,                                  !- Surface Type
  {0f6e1395-575b-4ed0-9817-0263db97bd48}, !- Construction Name
  {131b8222-59a5-44f7-ad2d-58398bef6043}, !- Space Name
  Surface,                                !- Outside Boundary Condition
  {b2c4c12c-e976-499c-8cbf-25f925ac3b26}, !- Outside Boundary Condition Object
  NoSun,                                  !- Sun Exposure
  NoWind,                                 !- Wind Exposure
  ,                                       !- View Factor to Ground
  ,                                       !- Number of Vertices
  0, 0, 0,                                !- X,Y,Z Vertex 1 {m}
  0, 4.7789814814456, 0,                  !- X,Y,Z Vertex 2 {m}
  8.60216666660208, 4.7789814814456, 0,   !- X,Y,Z Vertex 3 {m}
  8.60216666660208, 0, 0;                 !- X,Y,Z Vertex 4 {m}

OS:Surface,
  {1977162e-a61a-43dd-80ac-8114ff394a14}, !- Handle
  Surface 2,                              !- Name
  Wall,                                   !- Surface Type
  {64e5f5a5-7b2f-4c89-a296-a33dde2ae0f9}, !- Construction Name
  {131b8222-59a5-44f7-ad2d-58398bef6043}, !- Space Name
  Outdoors,                               !- Outside Boundary Condition
  ,                                       !- Outside Boundary Condition Object
  SunExposed,                             !- Sun Exposure
  WindExposed,                            !- Wind Exposure
  ,                                       !- View Factor to Ground
  ,                                       !- Number of Vertices
  0, 4.7789814814456, 2.4384,             !- X,Y,Z Vertex 1 {m}
  0, 4.7789814814456, 0,                  !- X,Y,Z Vertex 2 {m}
  0, 0, 0,                                !- X,Y,Z Vertex 3 {m}
  0, 0, 2.4384;                           !- X,Y,Z Vertex 4 {m}

OS:Surface,
  {52a168ab-eb38-4542-95f3-93f3a8fef970}, !- Handle
  Surface 3,                              !- Name
  Wall,                                   !- Surface Type
  {64e5f5a5-7b2f-4c89-a296-a33dde2ae0f9}, !- Construction Name
  {131b8222-59a5-44f7-ad2d-58398bef6043}, !- Space Name
  Outdoors,                               !- Outside Boundary Condition
  ,                                       !- Outside Boundary Condition Object
  SunExposed,                             !- Sun Exposure
  WindExposed,                            !- Wind Exposure
  ,                                       !- View Factor to Ground
  ,                                       !- Number of Vertices
  8.60216666660208, 4.7789814814456, 2.4384, !- X,Y,Z Vertex 1 {m}
  8.60216666660208, 4.7789814814456, 0,   !- X,Y,Z Vertex 2 {m}
  0, 4.7789814814456, 0,                  !- X,Y,Z Vertex 3 {m}
  0, 4.7789814814456, 2.4384;             !- X,Y,Z Vertex 4 {m}

OS:Surface,
  {490b7f5b-9df3-45a2-b039-a3f3e9d62b42}, !- Handle
  Surface 4,                              !- Name
  Wall,                                   !- Surface Type
  {64e5f5a5-7b2f-4c89-a296-a33dde2ae0f9}, !- Construction Name
  {131b8222-59a5-44f7-ad2d-58398bef6043}, !- Space Name
  Outdoors,                               !- Outside Boundary Condition
  ,                                       !- Outside Boundary Condition Object
  SunExposed,                             !- Sun Exposure
  WindExposed,                            !- Wind Exposure
  ,                                       !- View Factor to Ground
  ,                                       !- Number of Vertices
  8.60216666660208, 0, 2.4384,            !- X,Y,Z Vertex 1 {m}
  8.60216666660208, 0, 0,                 !- X,Y,Z Vertex 2 {m}
  8.60216666660208, 4.7789814814456, 0,   !- X,Y,Z Vertex 3 {m}
  8.60216666660208, 4.7789814814456, 2.4384; !- X,Y,Z Vertex 4 {m}

OS:Surface,
  {a2804881-b103-4b92-850c-42cd5e82bcf9}, !- Handle
  Surface 5,                              !- Name
  Wall,                                   !- Surface Type
  {64e5f5a5-7b2f-4c89-a296-a33dde2ae0f9}, !- Construction Name
  {131b8222-59a5-44f7-ad2d-58398bef6043}, !- Space Name
  Outdoors,                               !- Outside Boundary Condition
  ,                                       !- Outside Boundary Condition Object
  SunExposed,                             !- Sun Exposure
  WindExposed,                            !- Wind Exposure
  ,                                       !- View Factor to Ground
  ,                                       !- Number of Vertices
  1.04865714285714, 0, -3.86219670911458e-07, !- X,Y,Z Vertex 1 {m}
  8.60216666660208, 0, 0,                 !- X,Y,Z Vertex 2 {m}
  8.60216666660208, 0, 2.4384,            !- X,Y,Z Vertex 3 {m}
  1.04865714285714, 0, 2.43840038621967;  !- X,Y,Z Vertex 4 {m}

OS:Surface,
  {fec7ca49-a99b-4f4a-b420-94c5f38d4dc6}, !- Handle
  Surface 6,                              !- Name
  RoofCeiling,                            !- Surface Type
  {403955f7-ecae-499b-b8f9-d149662014ac}, !- Construction Name
  {131b8222-59a5-44f7-ad2d-58398bef6043}, !- Space Name
  Surface,                                !- Outside Boundary Condition
  {e95eb20f-c7c6-4406-9d24-c3c39ad8b8fc}, !- Outside Boundary Condition Object
  NoSun,                                  !- Sun Exposure
  NoWind,                                 !- Wind Exposure
  ,                                       !- View Factor to Ground